Version 4
SHEET 1 880 940
SYMBOL TEM-12706 176 544 R0
SYMATTR InstName X1
